*KEYWORD
*TITLE
                                                                                
$
*DATABASE_FORMAT
         2
$
$
$$$$$$$$$$$$$$$$$$$$$$$$$$$$$$$$$$$$$$$$$$$$$$$$$$$$$$$$$$$$$$$$$$$$$$$$$$$$$$$$
$                               NODE DEFINITIONS                               $
$$$$$$$$$$$$$$$$$$$$$$$$$$$$$$$$$$$$$$$$$$$$$$$$$$$$$$$$$$$$$$$$$$$$$$$$$$$$$$$$
$
*NODE
       1 1.010391394E-02 1.010391394E-02 0.000000000E+00       0       0
       2 1.010391394E-02-1.010391394E-02 0.000000000E+00       0       0
       3 1.010391394E-02 9.141636421E-03 0.000000000E+00       0       0
       4 1.010391394E-02 8.179358903E-03 0.000000000E+00       0       0
       5 1.010391394E-02 7.217081385E-03 0.000000000E+00       0       0
       6 1.010391394E-02 6.254803867E-03 0.000000000E+00       0       0
       7 1.010391394E-02 5.292526349E-03 0.000000000E+00       0       0
       8 1.010391394E-02 4.330248831E-03 0.000000000E+00       0       0
       9 1.010391394E-02 3.367971313E-03 0.000000000E+00       0       0
      10 1.010391394E-02 2.405693795E-03 0.000000000E+00       0       0
      11 1.010391394E-02 1.443416277E-03 0.000000000E+00       0       0
      12 1.010391394E-02 4.811387590E-04 0.000000000E+00       0       0
      13 1.010391394E-02-4.811387590E-04 0.000000000E+00       0       0
      14 1.010391394E-02-1.443416277E-03 0.000000000E+00       0       0
      15 1.010391394E-02-2.405693795E-03 0.000000000E+00       0       0
      16 1.010391394E-02-3.367971313E-03 0.000000000E+00       0       0
      17 1.010391394E-02-4.330248831E-03 0.000000000E+00       0       0
      18 1.010391394E-02-5.292526349E-03 0.000000000E+00       0       0
      19 1.010391394E-02-6.254803867E-03 0.000000000E+00       0       0
      20 1.010391394E-02-7.217081385E-03 0.000000000E+00       0       0
$ ... 10501 like lines cut
$
$
$$$$$$$$$$$$$$$$$$$$$$$$$$$$$$$$$$$$$$$$$$$$$$$$$$$$$$$$$$$$$$$$$$$$$$$$$$$$$$$$
$                             SECTION DEFINITIONS                              $
$$$$$$$$$$$$$$$$$$$$$$$$$$$$$$$$$$$$$$$$$$$$$$$$$$$$$$$$$$$$$$$$$$$$$$$$$$$$$$$$
$
*SECTION_SHELL
         1        10    0.8333       5.0       0.0       0.0         0
 0.891E-03 0.891E-03 0.891E-03 0.891E-03  0.00    
*SECTION_SOLID
         2         1
$
$
$$$$$$$$$$$$$$$$$$$$$$$$$$$$$$$$$$$$$$$$$$$$$$$$$$$$$$$$$$$$$$$$$$$$$$$$$$$$$$$$
$                             MATERIAL DEFINITIONS                             $
$$$$$$$$$$$$$$$$$$$$$$$$$$$$$$$$$$$$$$$$$$$$$$$$$$$$$$$$$$$$$$$$$$$$$$$$$$$$$$$$
$
*MAT_PLASTIC_KINEMATIC
         1 0.780E+04 0.180E+12  0.300000 0.100E+10 0.120E+10  1.00    
  0.00      0.00      0.00    
*MAT_PLASTIC_KINEMATIC
         2 0.780E+04 0.180E+12  0.300000 0.200E+09 0.120E+10  1.00    
  0.00      0.00      0.00    
*MAT_RIGID
         3 0.780E+04 0.210E+12  0.300000       0.0       0.0       0.0
  1.00      4.00      7.00    

$
$
$
$$$$$$$$$$$$$$$$$$$$$$$$$$$$$$$$$$$$$$$$$$$$$$$$$$$$$$$$$$$$$$$$$$$$$$$$$$$$$$$$
$                              PARTS DEFINITIONS                               $
$$$$$$$$$$$$$$$$$$$$$$$$$$$$$$$$$$$$$$$$$$$$$$$$$$$$$$$$$$$$$$$$$$$$$$$$$$$$$$$$
$
$
*PART
Part          1 for Mat         1 and Elem Type         1
         1         1         1         0         0         0         0
$
*PART
Part          2 for Mat         2 and Elem Type         1
         2         1         2         0         0         0         0
$
*PART
Part          3 for Mat         3 and Elem Type         2
         3         2         3         0         0         0         0
$
$
$$$$$$$$$$$$$$$$$$$$$$$$$$$$$$$$$$$$$$$$$$$$$$$$$$$$$$$$$$$$$$$$$$$$$$$$$$$$$$$$
$                             ELEMENT DEFINITIONS                              $
$$$$$$$$$$$$$$$$$$$$$$$$$$$$$$$$$$$$$$$$$$$$$$$$$$$$$$$$$$$$$$$$$$$$$$$$$$$$$$$$
$
*ELEMENT_SHELL
       1       1       1       3      71      58
       2       1       3       4      84      71
       3       1       4       5      97      84
       4       1       5       6     110      97
       5       1       6       7     123     110
       6       1       7       8     136     123
       7       1       8       9     149     136
       8       1       9      10     162     149
       9       1      10      11     175     162
      10       1      11      12     188     175
      11       1      12      13     201     188
      12       1      13      14     214     201
      13       1      14      15     227     214
      14       1      15      16     240     227
      15       1      16      17     253     240
      16       1      17      18     266     253
      17       1      18      19     279     266
      18       1      19      20     292     279
      19       1      20      21     305     292
      20       1      21      22     318     305
$ ... 8212 like lines cut
*ELEMENT_SOLID
    8233       3    8318    8378    8397    8337    9201    9243    9439    9327
    8234       3    8378    8379    8398    8397    9243    9244    9496    9439
    8235       3    8379    8380    8399    8398    9244    9245    9553    9496
    8236       3    8380    8381    8400    8399    9245    9246    9610    9553
    8237       3    8381    8382    8401    8400    9246    9247    9667    9610
    8238       3    8382    8383    8402    8401    9247    9248    9724    9667
    8239       3    8383    8384    8403    8402    9248    9249    9781    9724
    8240       3    8384    8385    8404    8403    9249    9250    9838    9781
    8241       3    8385    8386    8405    8404    9250    9251    9895    9838
    8242       3    8386    8387    8406    8405    9251    9252    9952    9895
    8243       3    8387    8388    8407    8406    9252    9253   10009    9952
    8244       3    8388    8389    8408    8407    9253    9254   10066   10009
    8245       3    8389    8390    8409    8408    9254    9255   10123   10066
    8246       3    8390    8391    8410    8409    9255    9256   10180   10123
    8247       3    8391    8392    8411    8410    9256    9257   10237   10180
    8248       3    8392    8393    8412    8411    9257    9258   10294   10237
    8249       3    8393    8394    8413    8412    9258    9259   10351   10294
    8250       3    8394    8395    8414    8413    9259    9260   10408   10351
    8251       3    8395    8396    8415    8414    9260    9261   10465   10408
    8252       3    8396    8358    8359    8415    9261    9202    9420   10465
$ ... 1580 like lines cut
$
$
$$$$$$$$$$$$$$$$$$$$$$$$$$$$$$$$$$$$$$$$$$$$$$$$$$$$$$$$$$$$$$$$$$$$$$$$$$$$$$$$
$                              COORDINATE SYSTEMS                              $
$$$$$$$$$$$$$$$$$$$$$$$$$$$$$$$$$$$$$$$$$$$$$$$$$$$$$$$$$$$$$$$$$$$$$$$$$$$$$$$$
$
$
$
$$$$$$$$$$$$$$$$$$$$$$$$$$$$$$$$$$$$$$$$$$$$$$$$$$$$$$$$$$$$$$$$$$$$$$$$$$$$$$$$
$                               LOAD DEFINITIONS                               $
$$$$$$$$$$$$$$$$$$$$$$$$$$$$$$$$$$$$$$$$$$$$$$$$$$$$$$$$$$$$$$$$$$$$$$$$$$$$$$$$
$
$
$
$$$$$$$$$$$$$$$$$$$$$$$$$$$$$$$$$$$$$$$$$$$$$$$$$$$$$$$$$$$$$$$$$$$$$$$$$$$$$$$$
$                                RIGID BOUNDRIES                               $
$$$$$$$$$$$$$$$$$$$$$$$$$$$$$$$$$$$$$$$$$$$$$$$$$$$$$$$$$$$$$$$$$$$$$$$$$$$$$$$$
$
*DEFINE_CURVE
         1         0     1.000     1.000     0.000     0.000
  0.000000000000E+00 -6.000000000000E+00
  1.000000000000E+00 -6.000000000000E+00
*BOUNDARY_PRESCRIBED_MOTION_RIGID
         3         3         0         1     1.000         0 0.000     0.000    
$
$
$$$$$$$$$$$$$$$$$$$$$$$$$$$$$$$$$$$$$$$$$$$$$$$$$$$$$$$$$$$$$$$$$$$$$$$$$$$$$$$$
$                             BOUNDARY DEFINITIONS                             $
$$$$$$$$$$$$$$$$$$$$$$$$$$$$$$$$$$$$$$$$$$$$$$$$$$$$$$$$$$$$$$$$$$$$$$$$$$$$$$$$
$
*SET_NODE_LIST
         1     0.000     0.000     0.000     0.000
         1         2         3         4         5         6         7         8
         9        10        11        12        13        14        15        16
        17        18        19        20        21        22       331       332
       333       334       335       336       337       338       339       340
       341       342       343       344       345       346       347       348
       349       350       351       646       647       648       649       650
       651       652       653       654       655       656       657       658
       659       660       661       662       663       664       665       666
       961       962       963       964       965       966       967       968
       969       970       971       972       973       974       975       976
       977       978       979       980
*BOUNDARY_SPC_SET
         1         0         1         1         1         1         1         1
*SET_NODE_LIST
         2     0.000     0.000     0.000     0.000
      7141      7155      7156      7157      7158      7159      7160      7161
      7162      7163      7164      7165      7166      7167      7168      7169
      7170      7171      7172      7173      7174      7175      7449      7463
      7464      7465      7466      7467      7468      7469      7470      7471
      7472      7473      7474      7475      7476      7477      7478      7479
      7480      7481      7482      7743      7757      7758      7759      7760
      7761      7762      7763      7764      7765      7766      7767      7768
      7769      7770      7771      7772      7773      7774      7775      7776
      8037      8038      8039      8040      8041      8042      8043      8044
      8045      8046      8047      8048      8049      8050      8051      8052
      8053      8054      8055      8056
*BOUNDARY_SPC_SET
         2         0         1         1         0         0         0         0
$
$
$$$$$$$$$$$$$$$$$$$$$$$$$$$$$$$$$$$$$$$$$$$$$$$$$$$$$$$$$$$$$$$$$$$$$$$$$$$$$$$$
$                              CONTACT DEFINITIONS                             $
$$$$$$$$$$$$$$$$$$$$$$$$$$$$$$$$$$$$$$$$$$$$$$$$$$$$$$$$$$$$$$$$$$$$$$$$$$$$$$$$
$
*CONTACT_AUTOMATIC_SINGLE_SURFACE
         0         0         0         0
    0.2000    0.2000    0.0000    0.0000    0.0000         0 0.000    0.1000E+08
 
*CONTACT_AUTOMATIC_SURFACE_TO_SURFACE
         1         3         3         3         0         0         0         0
0.2000    0.2000     0.000     0.000     0.000             0 0.000    0.1000E+08
 1.000     1.000     0.000     0.000     1.000     1.000     1.000     1.000    
*CONTACT_AUTOMATIC_SURFACE_TO_SURFACE
         2         3         3         3         0         0         0         0
0.2000    0.2000     0.000     0.000     0.000             0 0.000    0.1000E+08
 1.000     1.000     0.000     0.000     1.000     1.000     1.000     1.000    
$
$$$$$$$$$$$$$$$$$$$$$$$$$$$$$$$$$$$$$$$$$$$$$$$$$$$$$$$$$$$$$$$$$$$$$$$$$$$$$$$$
$                              CONTROL OPTIONS                                 $
$$$$$$$$$$$$$$$$$$$$$$$$$$$$$$$$$$$$$$$$$$$$$$$$$$$$$$$$$$$$$$$$$$$$$$$$$$$$$$$$
$
*CONTROL_ENERGY
         2         2         2         2
*CONTROL_SHELL
  20.0             1        -1         1         2         2         1
*CONTROL_TIMESTEP
    0.0000    0.9000         0  0.00      0.00    
*CONTROL_TERMINATION
 0.128E-01         0   0.00000   0.00000   0.00000
*DATABASE_HISTORY_NODE
         1
$
$$$$$$$$$$$$$$$$$$$$$$$$$$$$$$$$$$$$$$$$$$$$$$$$$$$$$$$$$$$$$$$$$$$$$$$$$$$$$$$$
$                                 TIME HISTORY                                 $
$$$$$$$$$$$$$$$$$$$$$$$$$$$$$$$$$$$$$$$$$$$$$$$$$$$$$$$$$$$$$$$$$$$$$$$$$$$$$$$$
$
*DATABASE_RWFORC  
0.1279E-03
*DATABASE_GLSTAT  
0.1279E-03
*DATABASE_DEFORC  
0.1279E-03
*DATABASE_MATSUM  
0.1279E-03
*DATABASE_NCFORC  
0.1279E-03
*DATABASE_RCFORC  
0.1279E-03
*DATABASE_DEFGEO  
0.1279E-03
*DATABASE_SPCFORC 
0.1279E-03
*DATABASE_SWFORC  
0.1279E-03
*DATABASE_BNDOUT  
0.1279E-03
*DATABASE_RBDOUT  
0.1279E-03
*DATABASE_GCEOUT  
0.1279E-03
*DATABASE_SLEOUT  
0.1279E-03
*DATABASE_JNTFORC 
0.1279E-03
*DATABASE_BINARY_D3PLOT
0.1279E-03
*DATABASE_BINARY_D3THDT
0.1279E-03
*DATABASE_BINARY_D3DUMP
     74343
$
$$$$$$$$$$$$$$$$$$$$$$$$$$$$$$$$$$$$$$$$$$$$$$$$$$$$$$$$$$$$$$$$$$$$$$$$$$$$$$$$
$                              DATABASE OPTIONS                                $
$$$$$$$$$$$$$$$$$$$$$$$$$$$$$$$$$$$$$$$$$$$$$$$$$$$$$$$$$$$$$$$$$$$$$$$$$$$$$$$$
$
*DATABASE_EXTENT_BINARY
         0         0         3         1         0         0         0         0
         0         0         4         0         0         0
*END
