*KEYWORD
*TITLE
                                                                                
$
*DATABASE_FORMAT
         2
$
$
$$$$$$$$$$$$$$$$$$$$$$$$$$$$$$$$$$$$$$$$$$$$$$$$$$$$$$$$$$$$$$$$$$$$$$$$$$$$$$$$
$                               NODE DEFINITIONS                               $
$$$$$$$$$$$$$$$$$$$$$$$$$$$$$$$$$$$$$$$$$$$$$$$$$$$$$$$$$$$$$$$$$$$$$$$$$$$$$$$$
$
*NODE
       1 5.000000000E-02 5.000000000E-02 0.000000000E+00       0       0
       2 5.000000000E-02-5.000000000E-02 0.000000000E+00       0       0
       3 5.000000000E-02 4.000000000E-02 0.000000000E+00       0       0
       4 5.000000000E-02 3.000000000E-02 0.000000000E+00       0       0
       5 5.000000000E-02 2.000000000E-02 0.000000000E+00       0       0
       6 5.000000000E-02 1.000000000E-02 0.000000000E+00       0       0
       7 5.000000000E-02 0.000000000E+00 0.000000000E+00       0       0
       8 5.000000000E-02-1.000000000E-02 0.000000000E+00       0       0
       9 5.000000000E-02-2.000000000E-02 0.000000000E+00       0       0
      10 5.000000000E-02-3.000000000E-02 0.000000000E+00       0       0
      11 5.000000000E-02-4.000000000E-02 0.000000000E+00       0       0
      12 5.000000000E-02-5.000000000E-02 2.857142857E-02       0       0
      13 5.000000000E-02-5.000000000E-02 9.523809524E-03       0       0
      14 5.000000000E-02-5.000000000E-02 1.904761905E-02       0       0
      15 5.000000000E-02 5.000000000E-02 2.857142857E-02       0       0
      16 5.000000000E-02 4.000000000E-02 2.857142857E-02       0       0
      17 5.000000000E-02 3.000000000E-02 2.857142857E-02       0       0
      18 5.000000000E-02 2.000000000E-02 2.857142857E-02       0       0
      19 5.000000000E-02 1.000000000E-02 2.857142857E-02       0       0
      20 5.000000000E-02 0.000000000E+00 2.857142857E-02       0       0
$ ... 3065 like lines cut
$
$
$$$$$$$$$$$$$$$$$$$$$$$$$$$$$$$$$$$$$$$$$$$$$$$$$$$$$$$$$$$$$$$$$$$$$$$$$$$$$$$$
$                             SECTION DEFINITIONS                              $
$$$$$$$$$$$$$$$$$$$$$$$$$$$$$$$$$$$$$$$$$$$$$$$$$$$$$$$$$$$$$$$$$$$$$$$$$$$$$$$$
$
*SECTION_SHELL
         1        10    0.8333       5.0       0.0       0.0         0
 0.200E-03 0.200E-03 0.200E-03 0.200E-03  0.00    
*SECTION_SOLID
         2         1
$
$
$$$$$$$$$$$$$$$$$$$$$$$$$$$$$$$$$$$$$$$$$$$$$$$$$$$$$$$$$$$$$$$$$$$$$$$$$$$$$$$$
$                             MATERIAL DEFINITIONS                             $
$$$$$$$$$$$$$$$$$$$$$$$$$$$$$$$$$$$$$$$$$$$$$$$$$$$$$$$$$$$$$$$$$$$$$$$$$$$$$$$$
$
*MAT_PLASTIC_KINEMATIC
         1 0.780E+04 0.180E+12  0.300000 0.100E+10 0.120E+10  1.00    
  0.00      0.00      0.00    
*MAT_PLASTIC_KINEMATIC
         2 0.780E+04 0.180E+12  0.300000 0.200E+09 0.120E+10  1.00    
  0.00      0.00      0.00    
*MAT_RIGID
         3 0.780E+04 0.210E+12  0.300000       0.0       0.0       0.0
  1.00      4.00      7.00    

$
$
$
$$$$$$$$$$$$$$$$$$$$$$$$$$$$$$$$$$$$$$$$$$$$$$$$$$$$$$$$$$$$$$$$$$$$$$$$$$$$$$$$
$                              PARTS DEFINITIONS                               $
$$$$$$$$$$$$$$$$$$$$$$$$$$$$$$$$$$$$$$$$$$$$$$$$$$$$$$$$$$$$$$$$$$$$$$$$$$$$$$$$
$
$
*PART
Part          1 for Mat         1 and Elem Type         1
         1         1         1         0         0         0         0
$
*PART
Part          2 for Mat         2 and Elem Type         1
         2         1         2         0         0         0         0
$
*PART
Part          3 for Mat         3 and Elem Type         2
         3         2         3         0         0         0         0
$
$
$$$$$$$$$$$$$$$$$$$$$$$$$$$$$$$$$$$$$$$$$$$$$$$$$$$$$$$$$$$$$$$$$$$$$$$$$$$$$$$$
$                             ELEMENT DEFINITIONS                              $
$$$$$$$$$$$$$$$$$$$$$$$$$$$$$$$$$$$$$$$$$$$$$$$$$$$$$$$$$$$$$$$$$$$$$$$$$$$$$$$$
$
*ELEMENT_SHELL
       1       1       1       3      27      25
       2       1       3       4      29      27
       3       1       4       5      31      29
       4       1       5       6      33      31
       5       1       6       7      35      33
       6       1       7       8      37      35
       7       1       8       9      39      37
       8       1       9      10      41      39
       9       1      10      11      43      41
      10       1      11       2      13      43
      11       1      25      27      28      26
      12       1      27      29      30      28
      13       1      29      31      32      30
      14       1      31      33      34      32
      15       1      33      35      36      34
      16       1      35      37      38      36
      17       1      37      39      40      38
      18       1      39      41      42      40
      19       1      41      43      44      42
      20       1      43      13      14      44
$ ... 820 like lines cut
*ELEMENT_SOLID
     841       3     882     942     961     901    1765    1807    2003    1891
     842       3     942     943     962     961    1807    1808    2060    2003
     843       3     943     944     963     962    1808    1809    2117    2060
     844       3     944     945     964     963    1809    1810    2174    2117
     845       3     945     946     965     964    1810    1811    2231    2174
     846       3     946     947     966     965    1811    1812    2288    2231
     847       3     947     948     967     966    1812    1813    2345    2288
     848       3     948     949     968     967    1813    1814    2402    2345
     849       3     949     950     969     968    1814    1815    2459    2402
     850       3     950     951     970     969    1815    1816    2516    2459
     851       3     951     952     971     970    1816    1817    2573    2516
     852       3     952     953     972     971    1817    1818    2630    2573
     853       3     953     954     973     972    1818    1819    2687    2630
     854       3     954     955     974     973    1819    1820    2744    2687
     855       3     955     956     975     974    1820    1821    2801    2744
     856       3     956     957     976     975    1821    1822    2858    2801
     857       3     957     958     977     976    1822    1823    2915    2858
     858       3     958     959     978     977    1823    1824    2972    2915
     859       3     959     960     979     978    1824    1825    3029    2972
     860       3     960     922     923     979    1825    1766    1984    3029
$ ... 1580 like lines cut
$
$
$$$$$$$$$$$$$$$$$$$$$$$$$$$$$$$$$$$$$$$$$$$$$$$$$$$$$$$$$$$$$$$$$$$$$$$$$$$$$$$$
$                              COORDINATE SYSTEMS                              $
$$$$$$$$$$$$$$$$$$$$$$$$$$$$$$$$$$$$$$$$$$$$$$$$$$$$$$$$$$$$$$$$$$$$$$$$$$$$$$$$
$
$
$
$$$$$$$$$$$$$$$$$$$$$$$$$$$$$$$$$$$$$$$$$$$$$$$$$$$$$$$$$$$$$$$$$$$$$$$$$$$$$$$$
$                               LOAD DEFINITIONS                               $
$$$$$$$$$$$$$$$$$$$$$$$$$$$$$$$$$$$$$$$$$$$$$$$$$$$$$$$$$$$$$$$$$$$$$$$$$$$$$$$$
$
$
$
$$$$$$$$$$$$$$$$$$$$$$$$$$$$$$$$$$$$$$$$$$$$$$$$$$$$$$$$$$$$$$$$$$$$$$$$$$$$$$$$
$                                RIGID BOUNDRIES                               $
$$$$$$$$$$$$$$$$$$$$$$$$$$$$$$$$$$$$$$$$$$$$$$$$$$$$$$$$$$$$$$$$$$$$$$$$$$$$$$$$
$
*DEFINE_CURVE
         1         0     1.000     1.000     0.000     0.000
  0.000000000000E+00 -6.000000000000E+00
  1.000000000000E+00 -6.000000000000E+00
*BOUNDARY_PRESCRIBED_MOTION_RIGID
         3         3         0         1     1.000         0 0.000     0.000    
$
$
$$$$$$$$$$$$$$$$$$$$$$$$$$$$$$$$$$$$$$$$$$$$$$$$$$$$$$$$$$$$$$$$$$$$$$$$$$$$$$$$
$                             BOUNDARY DEFINITIONS                             $
$$$$$$$$$$$$$$$$$$$$$$$$$$$$$$$$$$$$$$$$$$$$$$$$$$$$$$$$$$$$$$$$$$$$$$$$$$$$$$$$
$
*SET_NODE_LIST
         1     0.000     0.000     0.000     0.000
         1         2         3         4         5         6         7         8
         9        10        11        45        46        47        48        49
        50        51        52        53        54        85        86        87
        88        89        90        91        92        93        94       125
       126       127       128       129       130       131       132       133
*BOUNDARY_SPC_SET
         1         0         1         1         1         1         1         1
*SET_NODE_LIST
         2     0.000     0.000     0.000     0.000
       761       764       765       766       767       768       769       770
       771       772       773       794       797       798       799       800
       801       802       803       804       805       824       827       828
       829       830       831       832       833       834       835       854
       855       856       857       858       859       860       861       862
*BOUNDARY_SPC_SET
         2         0         1         1         0         0         0         0
$
$
$$$$$$$$$$$$$$$$$$$$$$$$$$$$$$$$$$$$$$$$$$$$$$$$$$$$$$$$$$$$$$$$$$$$$$$$$$$$$$$$
$                              CONTACT DEFINITIONS                             $
$$$$$$$$$$$$$$$$$$$$$$$$$$$$$$$$$$$$$$$$$$$$$$$$$$$$$$$$$$$$$$$$$$$$$$$$$$$$$$$$
$
*CONTACT_AUTOMATIC_SINGLE_SURFACE
         0         0         0         0
    0.2000    0.2000    0.0000    0.0000    0.0000         0 0.000    0.1000E+08
 
*CONTACT_AUTOMATIC_SURFACE_TO_SURFACE
         1         3         3         3         0         0         0         0
0.2000    0.2000     0.000     0.000     0.000             0 0.000    0.1000E+08
 1.000     1.000     0.000     0.000     1.000     1.000     1.000     1.000    
*CONTACT_AUTOMATIC_SURFACE_TO_SURFACE
         2         3         3         3         0         0         0         0
0.2000    0.2000     0.000     0.000     0.000             0 0.000    0.1000E+08
 1.000     1.000     0.000     0.000     1.000     1.000     1.000     1.000    
$
$$$$$$$$$$$$$$$$$$$$$$$$$$$$$$$$$$$$$$$$$$$$$$$$$$$$$$$$$$$$$$$$$$$$$$$$$$$$$$$$
$                              CONTROL OPTIONS                                 $
$$$$$$$$$$$$$$$$$$$$$$$$$$$$$$$$$$$$$$$$$$$$$$$$$$$$$$$$$$$$$$$$$$$$$$$$$$$$$$$$
$
*CONTROL_ENERGY
         2         2         2         2
*CONTROL_SHELL
  20.0             1        -1         1         2         2         1
*CONTROL_TIMESTEP
    0.0000    0.9000         0  0.00      0.00    
*CONTROL_TERMINATION
 0.270E-01         0   0.00000   0.00000   0.00000
*DATABASE_HISTORY_NODE
         1
$
$$$$$$$$$$$$$$$$$$$$$$$$$$$$$$$$$$$$$$$$$$$$$$$$$$$$$$$$$$$$$$$$$$$$$$$$$$$$$$$$
$                                 TIME HISTORY                                 $
$$$$$$$$$$$$$$$$$$$$$$$$$$$$$$$$$$$$$$$$$$$$$$$$$$$$$$$$$$$$$$$$$$$$$$$$$$$$$$$$
$
*DATABASE_RWFORC  
0.2700E-03
*DATABASE_GLSTAT  
0.2700E-03
*DATABASE_DEFORC  
0.2700E-03
*DATABASE_MATSUM  
0.2700E-03
*DATABASE_NCFORC  
0.2700E-03
*DATABASE_RCFORC  
0.2700E-03
*DATABASE_DEFGEO  
0.2700E-03
*DATABASE_SPCFORC 
0.2700E-03
*DATABASE_SWFORC  
0.2700E-03
*DATABASE_BNDOUT  
0.2700E-03
*DATABASE_RBDOUT  
0.2700E-03
*DATABASE_GCEOUT  
0.2700E-03
*DATABASE_SLEOUT  
0.2700E-03
*DATABASE_JNTFORC 
0.2700E-03
*DATABASE_BINARY_D3PLOT
0.2700E-03
*DATABASE_BINARY_D3THDT
0.2700E-03
*DATABASE_BINARY_D3DUMP
     15863
$
$$$$$$$$$$$$$$$$$$$$$$$$$$$$$$$$$$$$$$$$$$$$$$$$$$$$$$$$$$$$$$$$$$$$$$$$$$$$$$$$
$                              DATABASE OPTIONS                                $
$$$$$$$$$$$$$$$$$$$$$$$$$$$$$$$$$$$$$$$$$$$$$$$$$$$$$$$$$$$$$$$$$$$$$$$$$$$$$$$$
$
*DATABASE_EXTENT_BINARY
         0         0         3         1         0         0         0         0
         0         0         4         0         0         0
*END
